IEEETestCases/37Bus/ieee37_VLN_elem.Txt

NODE-GROUND VOLTAGES BY CIRCUIT ELEMENT

Power Delivery Elements

Bus       (node ref)  Phase    Magnitude, kV (pu)    Angle

ELEMENT = "Vsource.SOURCE"
SOURCEBUS  (  1)    1           132.77 (  0.9999) /_    0.0
SOURCEBUS  (  2)    2           132.78 (  0.9999) /_ -120.0
SOURCEBUS  (  3)    3           132.78 (  0.9999) /_  120.0
------------
SOURCEBUS  (  0)    0                0 (       0) /_    0.0
SOURCEBUS  (  0)    0                0 (       0) /_    0.0
SOURCEBUS  (  0)    0                0 (       0) /_    0.0

ELEMENT = "Transformer.SUBXF"
SOURCEBUS  (  1)    1           132.77 (  0.9999) /_    0.0
SOURCEBUS  (  2)    2           132.78 (  0.9999) /_ -120.0
SOURCEBUS  (  3)    3           132.78 (  0.9999) /_  120.0
SOURCEBUS  (  0)    0                0 (       0) /_    0.0
------------
799        (  4)    1           2.4965 (  0.9008) /_   -5.4
799        (  5)    2           2.6948 (  0.9724) /_ -123.6
799        (  6)    3           2.5945 (  0.9362) /_  117.0
799        (  0)    0                0 (       0) /_    0.0

ELEMENT = "Transformer.XFM1"
709        (  7)    1           2.5202 (  0.9094) /_   -4.1
709        (  8)    2           2.6256 (  0.9474) /_ -123.9
709        (  9)    3           2.5825 (  0.9319) /_  114.0
709        (  0)    0                0 (       0) /_    0.0
------------
775        ( 10)    1          0.25201 (  0.9094) /_   -4.1
775        ( 11)    2          0.26254 (  0.9474) /_ -123.9
775        ( 12)    3          0.25827 (   0.932) /_  114.0
775        (  0)    0                0 (       0) /_    0.0

ELEMENT = "Line.L1"
701        ( 13)    1            2.582 (  0.9317) /_   -3.9
701        ( 14)    2           2.6676 (  0.9626) /_ -123.8
701        ( 15)    3           2.6256 (  0.9474) /_  114.6
------------
702        ( 16)    1           2.5601 (  0.9238) /_   -4.0
702        ( 17)    2           2.6521 (   0.957) /_ -124.0
702        ( 18)    3           2.6068 (  0.9406) /_  114.3

ELEMENT = "Line.L2"
702        ( 16)    1           2.5601 (  0.9238) /_   -4.0
702        ( 17)    2           2.6521 (   0.957) /_ -124.0
702        ( 18)    3           2.6068 (  0.9406) /_  114.3
------------
705        ( 19)    1           2.5578 (   0.923) /_   -3.9
705        ( 20)    2           2.6497 (  0.9561) /_ -124.0
705        ( 21)    3           2.6026 (  0.9391) /_  114.3

ELEMENT = "Line.L3"
702        ( 16)    1           2.5601 (  0.9238) /_   -4.0
702        ( 17)    2           2.6521 (   0.957) /_ -124.0
702        ( 18)    3           2.6068 (  0.9406) /_  114.3
------------
713        ( 22)    1           2.5561 (  0.9224) /_   -3.9
713        ( 23)    2           2.6477 (  0.9554) /_ -124.0
713        ( 24)    3           2.6011 (  0.9386) /_  114.3

ELEMENT = "Line.L4"
702        ( 16)    1           2.5601 (  0.9238) /_   -4.0
702        ( 17)    2           2.6521 (   0.957) /_ -124.0
702        ( 18)    3           2.6068 (  0.9406) /_  114.3
------------
703        ( 25)    1           2.5398 (  0.9165) /_   -4.1
703        ( 26)    2           2.6384 (   0.952) /_ -124.0
703        ( 27)    3           2.5946 (  0.9363) /_  114.1

ELEMENT = "Line.L5"
703        ( 25)    1           2.5398 (  0.9165) /_   -4.1
703        ( 26)    2           2.6384 (   0.952) /_ -124.0
703        ( 27)    3           2.5946 (  0.9363) /_  114.1
------------
727        ( 28)    1           2.5365 (  0.9153) /_   -4.1
727        ( 29)    2           2.6359 (  0.9512) /_ -123.9
727        ( 30)    3           2.5927 (  0.9356) /_  114.1

ELEMENT = "Line.L6"
703        ( 25)    1           2.5398 (  0.9165) /_   -4.1
703        ( 26)    2           2.6384 (   0.952) /_ -124.0
703        ( 27)    3           2.5946 (  0.9363) /_  114.1
------------
730        ( 31)    1           2.5246 (   0.911) /_   -4.1
730        ( 32)    2           2.6288 (  0.9486) /_ -123.9
730        ( 33)    3           2.5852 (  0.9328) /_  114.0

ELEMENT = "Line.L7"
704        ( 34)    1            2.552 (  0.9209) /_   -3.9
704        ( 35)    2           2.6413 (  0.9531) /_ -124.0
704        ( 36)    3           2.5946 (  0.9362) /_  114.3
------------
714        ( 37)    1           2.5515 (  0.9207) /_   -3.9
714        ( 38)    2           2.6407 (  0.9529) /_ -124.0
714        ( 39)    3           2.5945 (  0.9362) /_  114.3

ELEMENT = "Line.L8"
704        ( 34)    1            2.552 (  0.9209) /_   -3.9
704        ( 35)    2           2.6413 (  0.9531) /_ -124.0
704        ( 36)    3           2.5946 (  0.9362) /_  114.3
------------
720        ( 40)    1           2.5484 (  0.9196) /_   -3.9
720        ( 41)    2           2.6348 (  0.9508) /_ -124.1
720        ( 42)    3           2.5849 (  0.9327) /_  114.4

ELEMENT = "Line.L9"
705        ( 19)    1           2.5578 (   0.923) /_   -3.9
705        ( 20)    2           2.6497 (  0.9561) /_ -124.0
705        ( 21)    3           2.6026 (  0.9391) /_  114.3
------------
742        ( 43)    1           2.5576 (  0.9229) /_   -3.9
742        ( 44)    2           2.6478 (  0.9554) /_ -124.0
742        ( 45)    3           2.6011 (  0.9386) /_  114.4

ELEMENT = "Line.L10"
705        ( 19)    1           2.5578 (   0.923) /_   -3.9
705        ( 20)    2           2.6497 (  0.9561) /_ -124.0
705        ( 21)    3           2.6026 (  0.9391) /_  114.3
------------
712        ( 46)    1           2.5566 (  0.9225) /_   -3.9
712        ( 47)    2           2.6497 (  0.9561) /_ -124.0
712        ( 48)    3           2.6012 (  0.9386) /_  114.3

ELEMENT = "Line.L11"
706        ( 49)    1           2.5483 (  0.9195) /_   -3.9
706        ( 50)    2           2.6339 (  0.9504) /_ -124.1
706        ( 51)    3           2.5839 (  0.9324) /_  114.4
------------
725        ( 52)    1           2.5483 (  0.9195) /_   -3.9
725        ( 53)    2           2.6331 (  0.9501) /_ -124.1
725        ( 54)    3           2.5832 (  0.9321) /_  114.4

ELEMENT = "Line.L12"
707        ( 55)    1           2.5469 (   0.919) /_   -3.9
707        ( 56)    2            2.623 (  0.9465) /_ -124.2
707        ( 57)    3           2.5738 (  0.9287) /_  114.5
------------
724        ( 58)    1           2.5469 (   0.919) /_   -3.9
724        ( 59)    2            2.621 (  0.9458) /_ -124.2
724        ( 60)    3           2.5721 (  0.9281) /_  114.5

ELEMENT = "Line.L13"
707        ( 55)    1           2.5469 (   0.919) /_   -3.9
707        ( 56)    2            2.623 (  0.9465) /_ -124.2
707        ( 57)    3           2.5738 (  0.9287) /_  114.5
------------
722        ( 61)    1           2.5467 (   0.919) /_   -3.9
722        ( 62)    2           2.6218 (  0.9461) /_ -124.2
722        ( 63)    3           2.5726 (  0.9283) /_  114.5

ELEMENT = "Line.L14"
708        ( 64)    1            2.513 (  0.9068) /_   -4.1
708        ( 65)    2           2.6213 (  0.9459) /_ -123.9
708        ( 66)    3           2.5792 (  0.9307) /_  113.9
------------
733        ( 67)    1           2.5065 (  0.9044) /_   -4.2
733        ( 68)    2            2.617 (  0.9443) /_ -123.8
733        ( 69)    3           2.5763 (  0.9296) /_  113.9

ELEMENT = "Line.L15"
708        ( 64)    1            2.513 (  0.9068) /_   -4.1
708        ( 65)    2           2.6213 (  0.9459) /_ -123.9
708        ( 66)    3           2.5792 (  0.9307) /_  113.9
------------
732        ( 70)    1           2.5123 (  0.9065) /_   -4.1
732        ( 71)    2           2.6213 (  0.9459) /_ -123.9
732        ( 72)    3           2.5782 (  0.9303) /_  113.9

ELEMENT = "Line.L16"
709        (  7)    1           2.5202 (  0.9094) /_   -4.1
709        (  8)    2           2.6256 (  0.9474) /_ -123.9
709        (  9)    3           2.5825 (  0.9319) /_  114.0
------------
731        ( 73)    1           2.5201 (  0.9094) /_   -4.1
731        ( 74)    2           2.6241 (  0.9469) /_ -123.9
731        ( 75)    3            2.581 (  0.9313) /_  114.0

ELEMENT = "Line.L17"
709        (  7)    1           2.5202 (  0.9094) /_   -4.1
709        (  8)    2           2.6256 (  0.9474) /_ -123.9
709        (  9)    3           2.5825 (  0.9319) /_  114.0
------------
708        ( 64)    1            2.513 (  0.9068) /_   -4.1
708        ( 65)    2           2.6213 (  0.9459) /_ -123.9
708        ( 66)    3           2.5792 (  0.9307) /_  113.9

ELEMENT = "Line.L18"
710        ( 76)    1           2.4946 (  0.9001) /_   -4.1
710        ( 77)    2           2.6095 (  0.9416) /_ -123.8
710        ( 78)    3           2.5675 (  0.9265) /_  113.8
------------
735        ( 79)    1           2.4939 (  0.8999) /_   -4.1
735        ( 80)    2           2.6095 (  0.9416) /_ -123.8
735        ( 81)    3           2.5666 (  0.9262) /_  113.8

ELEMENT = "Line.L19"
710        ( 76)    1           2.4946 (  0.9001) /_   -4.1
710        ( 77)    2           2.6095 (  0.9416) /_ -123.8
710        ( 78)    3           2.5675 (  0.9265) /_  113.8
------------
736        ( 82)    1           2.4945 (  0.9001) /_   -4.1
736        ( 83)    2           2.6059 (  0.9403) /_ -123.8
736        ( 84)    3           2.5646 (  0.9254) /_  113.9

ELEMENT = "Line.L20"
711        ( 85)    1           2.4818 (  0.8955) /_   -4.2
711        ( 86)    2            2.603 (  0.9393) /_ -123.7
711        ( 87)    3           2.5653 (  0.9257) /_  113.7
------------
741        ( 88)    1           2.4812 (  0.8953) /_   -4.2
741        ( 89)    2            2.603 (  0.9393) /_ -123.7
741        ( 90)    3           2.5647 (  0.9255) /_  113.7

ELEMENT = "Line.L21"
711        ( 85)    1           2.4818 (  0.8955) /_   -4.2
711        ( 86)    2            2.603 (  0.9393) /_ -123.7
711        ( 87)    3           2.5653 (  0.9257) /_  113.7
------------
740        ( 91)    1           2.4808 (  0.8952) /_   -4.2
740        ( 92)    2            2.603 (  0.9393) /_ -123.7
740        ( 93)    3           2.5641 (  0.9253) /_  113.7

ELEMENT = "Line.L22"
713        ( 22)    1           2.5561 (  0.9224) /_   -3.9
713        ( 23)    2           2.6477 (  0.9554) /_ -124.0
713        ( 24)    3           2.6011 (  0.9386) /_  114.3
------------
704        ( 34)    1            2.552 (  0.9209) /_   -3.9
704        ( 35)    2           2.6413 (  0.9531) /_ -124.0
704        ( 36)    3           2.5946 (  0.9362) /_  114.3

ELEMENT = "Line.L23"
714        ( 37)    1           2.5515 (  0.9207) /_   -3.9
714        ( 38)    2           2.6407 (  0.9529) /_ -124.0
714        ( 39)    3           2.5945 (  0.9362) /_  114.3
------------
718        ( 94)    1           2.5488 (  0.9197) /_   -4.0
718        ( 95)    2           2.6384 (  0.9521) /_ -124.0
718        ( 96)    3           2.5946 (  0.9362) /_  114.3

ELEMENT = "Line.L24"
720        ( 40)    1           2.5484 (  0.9196) /_   -3.9
720        ( 41)    2           2.6348 (  0.9508) /_ -124.1
720        ( 42)    3           2.5849 (  0.9327) /_  114.4
------------
707        ( 55)    1           2.5469 (   0.919) /_   -3.9
707        ( 56)    2            2.623 (  0.9465) /_ -124.2
707        ( 57)    3           2.5738 (  0.9287) /_  114.5

ELEMENT = "Line.L25"
720        ( 40)    1           2.5484 (  0.9196) /_   -3.9
720        ( 41)    2           2.6348 (  0.9508) /_ -124.1
720        ( 42)    3           2.5849 (  0.9327) /_  114.4
------------
706        ( 49)    1           2.5483 (  0.9195) /_   -3.9
706        ( 50)    2           2.6339 (  0.9504) /_ -124.1
706        ( 51)    3           2.5839 (  0.9324) /_  114.4

ELEMENT = "Line.L26"
727        ( 28)    1           2.5365 (  0.9153) /_   -4.1
727        ( 29)    2           2.6359 (  0.9512) /_ -123.9
727        ( 30)    3           2.5927 (  0.9356) /_  114.1
------------
744        ( 97)    1           2.5348 (  0.9147) /_   -4.1
744        ( 98)    2           2.6342 (  0.9505) /_ -123.9
744        ( 99)    3           2.5919 (  0.9353) /_  114.1

ELEMENT = "Line.L27"
730        ( 31)    1           2.5246 (   0.911) /_   -4.1
730        ( 32)    2           2.6288 (  0.9486) /_ -123.9
730        ( 33)    3           2.5852 (  0.9328) /_  114.0
------------
709        (  7)    1           2.5202 (  0.9094) /_   -4.1
709        (  8)    2           2.6256 (  0.9474) /_ -123.9
709        (  9)    3           2.5825 (  0.9319) /_  114.0

ELEMENT = "Line.L28"
733        ( 67)    1           2.5065 (  0.9044) /_   -4.2
733        ( 68)    2            2.617 (  0.9443) /_ -123.8
733        ( 69)    3           2.5763 (  0.9296) /_  113.9
------------
734        (100)    1           2.4964 (  0.9008) /_   -4.2
734        (101)    2           2.6109 (  0.9421) /_ -123.8
734        (102)    3           2.5711 (  0.9278) /_  113.8

ELEMENT = "Line.L29"
734        (100)    1           2.4964 (  0.9008) /_   -4.2
734        (101)    2           2.6109 (  0.9421) /_ -123.8
734        (102)    3           2.5711 (  0.9278) /_  113.8
------------
737        (103)    1           2.4874 (  0.8976) /_   -4.2
737        (104)    2           2.6048 (  0.9399) /_ -123.7
737        (105)    3           2.5687 (  0.9269) /_  113.8

ELEMENT = "Line.L30"
734        (100)    1           2.4964 (  0.9008) /_   -4.2
734        (101)    2           2.6109 (  0.9421) /_ -123.8
734        (102)    3           2.5711 (  0.9278) /_  113.8
------------
710        ( 76)    1           2.4946 (  0.9001) /_   -4.1
710        ( 77)    2           2.6095 (  0.9416) /_ -123.8
710        ( 78)    3           2.5675 (  0.9265) /_  113.8

ELEMENT = "Line.L31"
737        (103)    1           2.4874 (  0.8976) /_   -4.2
737        (104)    2           2.6048 (  0.9399) /_ -123.7
737        (105)    3           2.5687 (  0.9269) /_  113.8
------------
738        (106)    1           2.4838 (  0.8963) /_   -4.2
738        (107)    2            2.603 (  0.9393) /_ -123.7
738        (108)    3            2.567 (  0.9263) /_  113.7

ELEMENT = "Line.L32"
738        (106)    1           2.4838 (  0.8963) /_   -4.2
738        (107)    2            2.603 (  0.9393) /_ -123.7
738        (108)    3            2.567 (  0.9263) /_  113.7
------------
711        ( 85)    1           2.4818 (  0.8955) /_   -4.2
711        ( 86)    2            2.603 (  0.9393) /_ -123.7
711        ( 87)    3           2.5653 (  0.9257) /_  113.7

ELEMENT = "Line.L33"
744        ( 97)    1           2.5348 (  0.9147) /_   -4.1
744        ( 98)    2           2.6342 (  0.9505) /_ -123.9
744        ( 99)    3           2.5919 (  0.9353) /_  114.1
------------
728        (109)    1           2.5337 (  0.9143) /_   -4.1
728        (110)    2           2.6331 (  0.9501) /_ -123.9
728        (111)    3           2.5908 (  0.9349) /_  114.1

ELEMENT = "Line.L34"
744        ( 97)    1           2.5348 (  0.9147) /_   -4.1
744        ( 98)    2           2.6342 (  0.9505) /_ -123.9
744        ( 99)    3           2.5919 (  0.9353) /_  114.1
------------
729        (112)    1            2.534 (  0.9144) /_   -4.1
729        (113)    2           2.6335 (  0.9503) /_ -123.9
729        (114)    3           2.5919 (  0.9353) /_  114.1

ELEMENT = "Line.L35"
799R       (115)    1           2.6235 (  0.9467) /_   -3.7
799R       (116)    2           2.6948 (  0.9724) /_ -123.6
799R       (117)    3           2.6639 (  0.9612) /_  115.0
------------
701        ( 13)    1            2.582 (  0.9317) /_   -3.9
701        ( 14)    2           2.6676 (  0.9626) /_ -123.8
701        ( 15)    3           2.6256 (  0.9474) /_  114.6

ELEMENT = "Transformer.REG1A"
799        (  4)    1           2.4965 (  0.9008) /_   -5.4
799        (  5)    2           2.6948 (  0.9724) /_ -123.6
------------
799R       (115)    1           2.6235 (  0.9467) /_   -3.7
799R       (116)    2           2.6948 (  0.9724) /_ -123.6

ELEMENT = "Transformer.REG1C"
799        (  6)    3           2.5945 (  0.9362) /_  117.0
799        (  5)    2           2.6948 (  0.9724) /_ -123.6
------------
799R       (117)    3           2.6639 (  0.9612) /_  115.0
799R       (116)    2           2.6948 (  0.9724) /_ -123.6

ELEMENT = "Line.JUMPER"
799        (  5)    2           2.6948 (  0.9724) /_ -123.6
------------
799R       (116)    2           2.6948 (  0.9724) /_ -123.6

= = = = = = = = = = = = = = = = = = =  = = = = = = = = = = =  = =

Power Conversion Elements

Bus       (node ref)  Phase    Magnitude, kV (pu)    Angle

ELEMENT = "Load.S701A"
701        ( 13)    1            2.582 (  0.9317) /_   -3.9
701        ( 14)    2           2.6676 (  0.9626) /_ -123.8

ELEMENT = "Load.S701B"
701        ( 14)    2           2.6676 (  0.9626) /_ -123.8
701        ( 15)    3           2.6256 (  0.9474) /_  114.6

ELEMENT = "Load.S701C"
701        ( 15)    3           2.6256 (  0.9474) /_  114.6
701        ( 13)    1            2.582 (  0.9317) /_   -3.9

ELEMENT = "Load.S712C"
712        ( 48)    3           2.6012 (  0.9386) /_  114.3
712        ( 46)    1           2.5566 (  0.9225) /_   -3.9

ELEMENT = "Load.S713C"
713        ( 24)    3           2.6011 (  0.9386) /_  114.3
713        ( 22)    1           2.5561 (  0.9224) /_   -3.9

ELEMENT = "Load.S714A"
714        ( 37)    1           2.5515 (  0.9207) /_   -3.9
714        ( 38)    2           2.6407 (  0.9529) /_ -124.0

ELEMENT = "Load.S714B"
714        ( 38)    2           2.6407 (  0.9529) /_ -124.0
714        ( 39)    3           2.5945 (  0.9362) /_  114.3

ELEMENT = "Load.S718A"
718        ( 94)    1           2.5488 (  0.9197) /_   -4.0
718        ( 95)    2           2.6384 (  0.9521) /_ -124.0

ELEMENT = "Load.S720C"
720        ( 42)    3           2.5849 (  0.9327) /_  114.4
720        ( 40)    1           2.5484 (  0.9196) /_   -3.9

ELEMENT = "Load.S722B"
722        ( 62)    2           2.6218 (  0.9461) /_ -124.2
722        ( 63)    3           2.5726 (  0.9283) /_  114.5

ELEMENT = "Load.S722C"
722        ( 63)    3           2.5726 (  0.9283) /_  114.5
722        ( 61)    1           2.5467 (   0.919) /_   -3.9

ELEMENT = "Load.S724B"
724        ( 59)    2            2.621 (  0.9458) /_ -124.2
724        ( 60)    3           2.5721 (  0.9281) /_  114.5

ELEMENT = "Load.S725B"
725        ( 53)    2           2.6331 (  0.9501) /_ -124.1
725        ( 54)    3           2.5832 (  0.9321) /_  114.4

ELEMENT = "Load.S727C"
727        ( 30)    3           2.5927 (  0.9356) /_  114.1
727        ( 28)    1           2.5365 (  0.9153) /_   -4.1

ELEMENT = "Load.S728"
728        (109)    1           2.5337 (  0.9143) /_   -4.1
728        (110)    2           2.6331 (  0.9501) /_ -123.9
728        (111)    3           2.5908 (  0.9349) /_  114.1

ELEMENT = "Load.S729A"
729        (112)    1            2.534 (  0.9144) /_   -4.1
729        (113)    2           2.6335 (  0.9503) /_ -123.9

ELEMENT = "Load.S730C"
730        ( 33)    3           2.5852 (  0.9328) /_  114.0
730        ( 31)    1           2.5246 (   0.911) /_   -4.1

ELEMENT = "Load.S731B"
731        ( 74)    2           2.6241 (  0.9469) /_ -123.9
731        ( 75)    3            2.581 (  0.9313) /_  114.0

ELEMENT = "Load.S732C"
732        ( 72)    3           2.5782 (  0.9303) /_  113.9
732        ( 70)    1           2.5123 (  0.9065) /_   -4.1

ELEMENT = "Load.S733A"
733        ( 67)    1           2.5065 (  0.9044) /_   -4.2
733        ( 68)    2            2.617 (  0.9443) /_ -123.8

ELEMENT = "Load.S734C"
734        (102)    3           2.5711 (  0.9278) /_  113.8
734        (100)    1           2.4964 (  0.9008) /_   -4.2

ELEMENT = "Load.S735C"
735        ( 81)    3           2.5666 (  0.9262) /_  113.8
735        ( 79)    1           2.4939 (  0.8999) /_   -4.1

ELEMENT = "Load.S736B"
736        ( 83)    2           2.6059 (  0.9403) /_ -123.8
736        ( 84)    3           2.5646 (  0.9254) /_  113.9

ELEMENT = "Load.S737A"
737        (103)    1           2.4874 (  0.8976) /_   -4.2
737        (104)    2           2.6048 (  0.9399) /_ -123.7

ELEMENT = "Load.S738A"
738        (106)    1           2.4838 (  0.8963) /_   -4.2
738        (107)    2            2.603 (  0.9393) /_ -123.7

ELEMENT = "Load.S740C"
740        ( 93)    3           2.5641 (  0.9253) /_  113.7
740        ( 91)    1           2.4808 (  0.8952) /_   -4.2

ELEMENT = "Load.S741C"
741        ( 90)    3           2.5647 (  0.9255) /_  113.7
741        ( 88)    1           2.4812 (  0.8953) /_   -4.2

ELEMENT = "Load.S742A"
742        ( 43)    1           2.5576 (  0.9229) /_   -3.9
742        ( 44)    2           2.6478 (  0.9554) /_ -124.0

ELEMENT = "Load.S742B"
742        ( 44)    2           2.6478 (  0.9554) /_ -124.0
742        ( 45)    3           2.6011 (  0.9386) /_  114.4

ELEMENT = "Load.S744A"
744        ( 97)    1           2.5348 (  0.9147) /_   -4.1
744        ( 98)    2           2.6342 (  0.9505) /_ -123.9

